CE Folded dipole (lambda/2), d=lambda/200, spacing s=1.250000 m
CE Sweep 30.0..90.0 MHz step 0.5 MHz
GW 1 41 -0.625000 0 -1.250000  -0.625000 0 1.250000  0.012500
GW 2 41 0.625000 0 -1.250000  0.625000 0 1.250000  0.012500
GW 3 1 -0.625000 0 1.250000  0.625000 0 1.250000  0.012500
GW 4 1 -0.625000 0 -1.250000  0.625000 0 -1.250000  0.012500
GE 0
FR 0 121 0 0 30.000 0.500
EX 0 1 21 0 1 0
EN
