CE Helix patterns for f=80.0 MHz (Question 2g)
GW 1 1 0.119366 0.000000 0.018750 0.111306 0.043120 0.029779 0.003750
GW 2 1 0.111306 0.043120 0.029779 0.088213 0.080416 0.040809 0.003750
GW 3 1 0.088213 0.080416 0.040809 0.053206 0.106852 0.051838 0.003750
GW 4 1 0.053206 0.106852 0.051838 0.011014 0.118857 0.062868 0.003750
GW 5 1 0.011014 0.118857 0.062868 -0.032666 0.114809 0.073897 0.003750
GW 6 1 -0.032666 0.114809 0.073897 -0.071934 0.095256 0.084926 0.003750
GW 7 1 -0.071934 0.095256 0.084926 -0.101487 0.062838 0.095956 0.003750
GW 8 1 -0.101487 0.062838 0.095956 -0.117334 0.021933 0.106985 0.003750
GW 9 1 -0.117334 0.021933 0.106985 -0.117334 -0.021933 0.118015 0.003750
GW 10 1 -0.117334 -0.021933 0.118015 -0.101487 -0.062838 0.129044 0.003750
GW 11 1 -0.101487 -0.062838 0.129044 -0.071934 -0.095256 0.140074 0.003750
GW 12 1 -0.071934 -0.095256 0.140074 -0.032666 -0.114809 0.151103 0.003750
GW 13 1 -0.032666 -0.114809 0.151103 0.011014 -0.118857 0.162132 0.003750
GW 14 1 0.011014 -0.118857 0.162132 0.053206 -0.106852 0.173162 0.003750
GW 15 1 0.053206 -0.106852 0.173162 0.088213 -0.080416 0.184191 0.003750
GW 16 1 0.088213 -0.080416 0.184191 0.111306 -0.043120 0.195221 0.003750
GW 17 1 0.111306 -0.043120 0.195221 0.119366 -0.000000 0.206250 0.003750
GW 18 1 0.119366 -0.000000 0.206250 0.111306 0.043120 0.217279 0.003750
GW 19 1 0.111306 0.043120 0.217279 0.088213 0.080416 0.228309 0.003750
GW 20 1 0.088213 0.080416 0.228309 0.053206 0.106852 0.239338 0.003750
GW 21 1 0.053206 0.106852 0.239338 0.011014 0.118857 0.250368 0.003750
GW 22 1 0.011014 0.118857 0.250368 -0.032666 0.114809 0.261397 0.003750
GW 23 1 -0.032666 0.114809 0.261397 -0.071934 0.095256 0.272426 0.003750
GW 24 1 -0.071934 0.095256 0.272426 -0.101487 0.062838 0.283456 0.003750
GW 25 1 -0.101487 0.062838 0.283456 -0.117334 0.021933 0.294485 0.003750
GW 26 1 -0.117334 0.021933 0.294485 -0.117334 -0.021933 0.305515 0.003750
GW 27 1 -0.117334 -0.021933 0.305515 -0.101487 -0.062838 0.316544 0.003750
GW 28 1 -0.101487 -0.062838 0.316544 -0.071934 -0.095256 0.327574 0.003750
GW 29 1 -0.071934 -0.095256 0.327574 -0.032666 -0.114809 0.338603 0.003750
GW 30 1 -0.032666 -0.114809 0.338603 0.011014 -0.118857 0.349632 0.003750
GW 31 1 0.011014 -0.118857 0.349632 0.053206 -0.106852 0.360662 0.003750
GW 32 1 0.053206 -0.106852 0.360662 0.088213 -0.080416 0.371691 0.003750
GW 33 1 0.088213 -0.080416 0.371691 0.111306 -0.043120 0.382721 0.003750
GW 34 1 0.111306 -0.043120 0.382721 0.119366 -0.000000 0.393750 0.003750
GW 35 1 0.119366 -0.000000 0.393750 0.111306 0.043120 0.404779 0.003750
GW 36 1 0.111306 0.043120 0.404779 0.088213 0.080416 0.415809 0.003750
GW 37 1 0.088213 0.080416 0.415809 0.053206 0.106852 0.426838 0.003750
GW 38 1 0.053206 0.106852 0.426838 0.011014 0.118857 0.437868 0.003750
GW 39 1 0.011014 0.118857 0.437868 -0.032666 0.114809 0.448897 0.003750
GW 40 1 -0.032666 0.114809 0.448897 -0.071934 0.095256 0.459926 0.003750
GW 41 1 -0.071934 0.095256 0.459926 -0.101487 0.062838 0.470956 0.003750
GW 42 1 -0.101487 0.062838 0.470956 -0.117334 0.021933 0.481985 0.003750
GW 43 1 -0.117334 0.021933 0.481985 -0.117334 -0.021933 0.493015 0.003750
GW 44 1 -0.117334 -0.021933 0.493015 -0.101487 -0.062838 0.504044 0.003750
GW 45 1 -0.101487 -0.062838 0.504044 -0.071934 -0.095256 0.515074 0.003750
GW 46 1 -0.071934 -0.095256 0.515074 -0.032666 -0.114809 0.526103 0.003750
GW 47 1 -0.032666 -0.114809 0.526103 0.011014 -0.118857 0.537132 0.003750
GW 48 1 0.011014 -0.118857 0.537132 0.053206 -0.106852 0.548162 0.003750
GW 49 1 0.053206 -0.106852 0.548162 0.088213 -0.080416 0.559191 0.003750
GW 50 1 0.088213 -0.080416 0.559191 0.111306 -0.043120 0.570221 0.003750
GW 51 1 0.111306 -0.043120 0.570221 0.119366 -0.000000 0.581250 0.003750
GW 52 1 0.119366 -0.000000 0.581250 0.111306 0.043120 0.592279 0.003750
GW 53 1 0.111306 0.043120 0.592279 0.088213 0.080416 0.603309 0.003750
GW 54 1 0.088213 0.080416 0.603309 0.053206 0.106852 0.614338 0.003750
GW 55 1 0.053206 0.106852 0.614338 0.011014 0.118857 0.625368 0.003750
GW 56 1 0.011014 0.118857 0.625368 -0.032666 0.114809 0.636397 0.003750
GW 57 1 -0.032666 0.114809 0.636397 -0.071934 0.095256 0.647426 0.003750
GW 58 1 -0.071934 0.095256 0.647426 -0.101487 0.062838 0.658456 0.003750
GW 59 1 -0.101487 0.062838 0.658456 -0.117334 0.021933 0.669485 0.003750
GW 60 1 -0.117334 0.021933 0.669485 -0.117334 -0.021933 0.680515 0.003750
GW 61 1 -0.117334 -0.021933 0.680515 -0.101487 -0.062838 0.691544 0.003750
GW 62 1 -0.101487 -0.062838 0.691544 -0.071934 -0.095256 0.702574 0.003750
GW 63 1 -0.071934 -0.095256 0.702574 -0.032666 -0.114809 0.713603 0.003750
GW 64 1 -0.032666 -0.114809 0.713603 0.011014 -0.118857 0.724632 0.003750
GW 65 1 0.011014 -0.118857 0.724632 0.053206 -0.106852 0.735662 0.003750
GW 66 1 0.053206 -0.106852 0.735662 0.088213 -0.080416 0.746691 0.003750
GW 67 1 0.088213 -0.080416 0.746691 0.111306 -0.043120 0.757721 0.003750
GW 68 1 0.111306 -0.043120 0.757721 0.119366 -0.000000 0.768750 0.003750
GW 69 1 0.119366 -0.000000 0.768750 0.111306 0.043120 0.779779 0.003750
GW 70 1 0.111306 0.043120 0.779779 0.088213 0.080416 0.790809 0.003750
GW 71 1 0.088213 0.080416 0.790809 0.053206 0.106852 0.801838 0.003750
GW 72 1 0.053206 0.106852 0.801838 0.011014 0.118857 0.812868 0.003750
GW 73 1 0.011014 0.118857 0.812868 -0.032666 0.114809 0.823897 0.003750
GW 74 1 -0.032666 0.114809 0.823897 -0.071934 0.095256 0.834926 0.003750
GW 75 1 -0.071934 0.095256 0.834926 -0.101487 0.062838 0.845956 0.003750
GW 76 1 -0.101487 0.062838 0.845956 -0.117334 0.021933 0.856985 0.003750
GW 77 1 -0.117334 0.021933 0.856985 -0.117334 -0.021933 0.868015 0.003750
GW 78 1 -0.117334 -0.021933 0.868015 -0.101487 -0.062838 0.879044 0.003750
GW 79 1 -0.101487 -0.062838 0.879044 -0.071934 -0.095256 0.890074 0.003750
GW 80 1 -0.071934 -0.095256 0.890074 -0.032666 -0.114809 0.901103 0.003750
GW 81 1 -0.032666 -0.114809 0.901103 0.011014 -0.118857 0.912132 0.003750
GW 82 1 0.011014 -0.118857 0.912132 0.053206 -0.106852 0.923162 0.003750
GW 83 1 0.053206 -0.106852 0.923162 0.088213 -0.080416 0.934191 0.003750
GW 84 1 0.088213 -0.080416 0.934191 0.111306 -0.043120 0.945221 0.003750
GW 85 1 0.111306 -0.043120 0.945221 0.119366 -0.000000 0.956250 0.003750
GW 86 1 0.119366 -0.000000 0.956250 0.111306 0.043120 0.967279 0.003750
GW 87 1 0.111306 0.043120 0.967279 0.088213 0.080416 0.978309 0.003750
GW 88 1 0.088213 0.080416 0.978309 0.053206 0.106852 0.989338 0.003750
GW 89 1 0.053206 0.106852 0.989338 0.011014 0.118857 1.000368 0.003750
GW 90 1 0.011014 0.118857 1.000368 -0.032666 0.114809 1.011397 0.003750
GW 91 1 -0.032666 0.114809 1.011397 -0.071934 0.095256 1.022426 0.003750
GW 92 1 -0.071934 0.095256 1.022426 -0.101487 0.062838 1.033456 0.003750
GW 93 1 -0.101487 0.062838 1.033456 -0.117334 0.021933 1.044485 0.003750
GW 94 1 -0.117334 0.021933 1.044485 -0.117334 -0.021933 1.055515 0.003750
GW 95 1 -0.117334 -0.021933 1.055515 -0.101487 -0.062838 1.066544 0.003750
GW 96 1 -0.101487 -0.062838 1.066544 -0.071934 -0.095256 1.077574 0.003750
GW 97 1 -0.071934 -0.095256 1.077574 -0.032666 -0.114809 1.088603 0.003750
GW 98 1 -0.032666 -0.114809 1.088603 0.011014 -0.118857 1.099632 0.003750
GW 99 1 0.011014 -0.118857 1.099632 0.053206 -0.106852 1.110662 0.003750
GW 101 1 0.053206 -0.106852 1.110662 0.088213 -0.080416 1.121691 0.003750
GW 102 1 0.088213 -0.080416 1.121691 0.111306 -0.043120 1.132721 0.003750
GW 103 1 0.111306 -0.043120 1.132721 0.119366 -0.000000 1.143750 0.003750
GW 104 1 0.119366 -0.000000 1.143750 0.111306 0.043120 1.154779 0.003750
GW 105 1 0.111306 0.043120 1.154779 0.088213 0.080416 1.165809 0.003750
GW 106 1 0.088213 0.080416 1.165809 0.053206 0.106852 1.176838 0.003750
GW 107 1 0.053206 0.106852 1.176838 0.011014 0.118857 1.187868 0.003750
GW 108 1 0.011014 0.118857 1.187868 -0.032666 0.114809 1.198897 0.003750
GW 109 1 -0.032666 0.114809 1.198897 -0.071934 0.095256 1.209926 0.003750
GW 110 1 -0.071934 0.095256 1.209926 -0.101487 0.062838 1.220956 0.003750
GW 111 1 -0.101487 0.062838 1.220956 -0.117334 0.021933 1.231985 0.003750
GW 112 1 -0.117334 0.021933 1.231985 -0.117334 -0.021933 1.243015 0.003750
GW 113 1 -0.117334 -0.021933 1.243015 -0.101487 -0.062838 1.254044 0.003750
GW 114 1 -0.101487 -0.062838 1.254044 -0.071934 -0.095256 1.265074 0.003750
GW 115 1 -0.071934 -0.095256 1.265074 -0.032666 -0.114809 1.276103 0.003750
GW 116 1 -0.032666 -0.114809 1.276103 0.011014 -0.118857 1.287132 0.003750
GW 117 1 0.011014 -0.118857 1.287132 0.053206 -0.106852 1.298162 0.003750
GW 118 1 0.053206 -0.106852 1.298162 0.088213 -0.080416 1.309191 0.003750
GW 119 1 0.088213 -0.080416 1.309191 0.111306 -0.043120 1.320221 0.003750
GW 120 1 0.111306 -0.043120 1.320221 0.119366 -0.000000 1.331250 0.003750
GW 121 1 0.119366 -0.000000 1.331250 0.111306 0.043120 1.342279 0.003750
GW 122 1 0.111306 0.043120 1.342279 0.088213 0.080416 1.353309 0.003750
GW 123 1 0.088213 0.080416 1.353309 0.053206 0.106852 1.364338 0.003750
GW 124 1 0.053206 0.106852 1.364338 0.011014 0.118857 1.375368 0.003750
GW 125 1 0.011014 0.118857 1.375368 -0.032666 0.114809 1.386397 0.003750
GW 126 1 -0.032666 0.114809 1.386397 -0.071934 0.095256 1.397426 0.003750
GW 127 1 -0.071934 0.095256 1.397426 -0.101487 0.062838 1.408456 0.003750
GW 128 1 -0.101487 0.062838 1.408456 -0.117334 0.021933 1.419485 0.003750
GW 129 1 -0.117334 0.021933 1.419485 -0.117334 -0.021933 1.430515 0.003750
GW 130 1 -0.117334 -0.021933 1.430515 -0.101487 -0.062838 1.441544 0.003750
GW 131 1 -0.101487 -0.062838 1.441544 -0.071934 -0.095256 1.452574 0.003750
GW 132 1 -0.071934 -0.095256 1.452574 -0.032666 -0.114809 1.463603 0.003750
GW 133 1 -0.032666 -0.114809 1.463603 0.011014 -0.118857 1.474632 0.003750
GW 134 1 0.011014 -0.118857 1.474632 0.053206 -0.106852 1.485662 0.003750
GW 135 1 0.053206 -0.106852 1.485662 0.088213 -0.080416 1.496691 0.003750
GW 136 1 0.088213 -0.080416 1.496691 0.111306 -0.043120 1.507721 0.003750
GW 137 1 0.111306 -0.043120 1.507721 0.119366 -0.000000 1.518750 0.003750
GW 138 1 0.119366 -0.000000 1.518750 0.111306 0.043120 1.529779 0.003750
GW 139 1 0.111306 0.043120 1.529779 0.088213 0.080416 1.540809 0.003750
GW 140 1 0.088213 0.080416 1.540809 0.053206 0.106852 1.551838 0.003750
GW 141 1 0.053206 0.106852 1.551838 0.011014 0.118857 1.562868 0.003750
GW 142 1 0.011014 0.118857 1.562868 -0.032666 0.114809 1.573897 0.003750
GW 143 1 -0.032666 0.114809 1.573897 -0.071934 0.095256 1.584926 0.003750
GW 144 1 -0.071934 0.095256 1.584926 -0.101487 0.062838 1.595956 0.003750
GW 145 1 -0.101487 0.062838 1.595956 -0.117334 0.021933 1.606985 0.003750
GW 146 1 -0.117334 0.021933 1.606985 -0.117334 -0.021933 1.618015 0.003750
GW 147 1 -0.117334 -0.021933 1.618015 -0.101487 -0.062838 1.629044 0.003750
GW 148 1 -0.101487 -0.062838 1.629044 -0.071934 -0.095256 1.640074 0.003750
GW 149 1 -0.071934 -0.095256 1.640074 -0.032666 -0.114809 1.651103 0.003750
GW 150 1 -0.032666 -0.114809 1.651103 0.011014 -0.118857 1.662132 0.003750
GW 151 1 0.011014 -0.118857 1.662132 0.053206 -0.106852 1.673162 0.003750
GW 152 1 0.053206 -0.106852 1.673162 0.088213 -0.080416 1.684191 0.003750
GW 153 1 0.088213 -0.080416 1.684191 0.111306 -0.043120 1.695221 0.003750
GW 154 1 0.111306 -0.043120 1.695221 0.119366 -0.000000 1.706250 0.003750
GW 155 1 0.119366 -0.000000 1.706250 0.111306 0.043120 1.717279 0.003750
GW 156 1 0.111306 0.043120 1.717279 0.088213 0.080416 1.728309 0.003750
GW 157 1 0.088213 0.080416 1.728309 0.053206 0.106852 1.739338 0.003750
GW 158 1 0.053206 0.106852 1.739338 0.011014 0.118857 1.750368 0.003750
GW 159 1 0.011014 0.118857 1.750368 -0.032666 0.114809 1.761397 0.003750
GW 160 1 -0.032666 0.114809 1.761397 -0.071934 0.095256 1.772426 0.003750
GW 161 1 -0.071934 0.095256 1.772426 -0.101487 0.062838 1.783456 0.003750
GW 162 1 -0.101487 0.062838 1.783456 -0.117334 0.021933 1.794485 0.003750
GW 163 1 -0.117334 0.021933 1.794485 -0.117334 -0.021933 1.805515 0.003750
GW 164 1 -0.117334 -0.021933 1.805515 -0.101487 -0.062838 1.816544 0.003750
GW 165 1 -0.101487 -0.062838 1.816544 -0.071934 -0.095256 1.827574 0.003750
GW 166 1 -0.071934 -0.095256 1.827574 -0.032666 -0.114809 1.838603 0.003750
GW 167 1 -0.032666 -0.114809 1.838603 0.011014 -0.118857 1.849632 0.003750
GW 168 1 0.011014 -0.118857 1.849632 0.053206 -0.106852 1.860662 0.003750
GW 169 1 0.053206 -0.106852 1.860662 0.088213 -0.080416 1.871691 0.003750
GW 170 1 0.088213 -0.080416 1.871691 0.111306 -0.043120 1.882721 0.003750
GW 171 1 0.111306 -0.043120 1.882721 0.119366 -0.000000 1.893750 0.003750
GW 100 1 0.119366 0.000000 0 0.119366 0.000000 0.018750 0.003750
GW 172 1 0.000000 0.000000 0 0.093750 0.000000 0 0.003750
GW 173 1 0.093750 0.000000 0 0.119366 0.000000 0 0.003750
GW 174 1 0.119366 0.000000 0 0.187500 0.000000 0 0.003750
GW 175 1 0.187500 0.000000 0 0.281250 0.000000 0 0.003750
GW 176 1 0.281250 0.000000 0 0.375000 0.000000 0 0.003750
GW 177 1 0.000000 0.000000 0 0.066291 0.066291 0 0.003750
GW 178 1 0.066291 0.066291 0 0.132583 0.132583 0 0.003750
GW 179 1 0.132583 0.132583 0 0.198874 0.198874 0 0.003750
GW 180 1 0.198874 0.198874 0 0.265165 0.265165 0 0.003750
GW 181 1 0.000000 0.000000 0 0.000000 0.093750 0 0.003750
GW 182 1 0.000000 0.093750 0 0.000000 0.187500 0 0.003750
GW 183 1 0.000000 0.187500 0 0.000000 0.281250 0 0.003750
GW 184 1 0.000000 0.281250 0 0.000000 0.375000 0 0.003750
GW 185 1 -0.000000 0.000000 0 -0.066291 0.066291 0 0.003750
GW 186 1 -0.066291 0.066291 0 -0.132583 0.132583 0 0.003750
GW 187 1 -0.132583 0.132583 0 -0.198874 0.198874 0 0.003750
GW 188 1 -0.198874 0.198874 0 -0.265165 0.265165 0 0.003750
GW 189 1 -0.000000 0.000000 0 -0.093750 0.000000 0 0.003750
GW 190 1 -0.093750 0.000000 0 -0.187500 0.000000 0 0.003750
GW 191 1 -0.187500 0.000000 0 -0.281250 0.000000 0 0.003750
GW 192 1 -0.281250 0.000000 0 -0.375000 0.000000 0 0.003750
GW 193 1 -0.000000 -0.000000 0 -0.066291 -0.066291 0 0.003750
GW 194 1 -0.066291 -0.066291 0 -0.132583 -0.132583 0 0.003750
GW 195 1 -0.132583 -0.132583 0 -0.198874 -0.198874 0 0.003750
GW 196 1 -0.198874 -0.198874 0 -0.265165 -0.265165 0 0.003750
GW 197 1 -0.000000 -0.000000 0 -0.000000 -0.093750 0 0.003750
GW 198 1 -0.000000 -0.093750 0 -0.000000 -0.187500 0 0.003750
GW 199 1 -0.000000 -0.187500 0 -0.000000 -0.281250 0 0.003750
GW 200 1 -0.000000 -0.281250 0 -0.000000 -0.375000 0 0.003750
GW 201 1 0.000000 -0.000000 0 0.066291 -0.066291 0 0.003750
GW 202 1 0.066291 -0.066291 0 0.132583 -0.132583 0 0.003750
GW 203 1 0.132583 -0.132583 0 0.198874 -0.198874 0 0.003750
GW 204 1 0.198874 -0.198874 0 0.265165 -0.265165 0 0.003750
GW 205 1 0.093750 0.000000 0 0.066291 0.066291 0 0.003750
GW 206 1 0.066291 0.066291 0 0.000000 0.093750 0 0.003750
GW 207 1 0.000000 0.093750 0 -0.066291 0.066291 0 0.003750
GW 208 1 -0.066291 0.066291 0 -0.093750 0.000000 0 0.003750
GW 209 1 -0.093750 0.000000 0 -0.066291 -0.066291 0 0.003750
GW 210 1 -0.066291 -0.066291 0 -0.000000 -0.093750 0 0.003750
GW 211 1 -0.000000 -0.093750 0 0.066291 -0.066291 0 0.003750
GW 212 1 0.066291 -0.066291 0 0.093750 0.000000 0 0.003750
GW 213 1 0.187500 0.000000 0 0.132583 0.132583 0 0.003750
GW 214 1 0.132583 0.132583 0 0.000000 0.187500 0 0.003750
GW 215 1 0.000000 0.187500 0 -0.132583 0.132583 0 0.003750
GW 216 1 -0.132583 0.132583 0 -0.187500 0.000000 0 0.003750
GW 217 1 -0.187500 0.000000 0 -0.132583 -0.132583 0 0.003750
GW 218 1 -0.132583 -0.132583 0 -0.000000 -0.187500 0 0.003750
GW 219 1 -0.000000 -0.187500 0 0.132583 -0.132583 0 0.003750
GW 220 1 0.132583 -0.132583 0 0.187500 0.000000 0 0.003750
GW 221 1 0.281250 0.000000 0 0.198874 0.198874 0 0.003750
GW 222 1 0.198874 0.198874 0 0.000000 0.281250 0 0.003750
GW 223 1 0.000000 0.281250 0 -0.198874 0.198874 0 0.003750
GW 224 1 -0.198874 0.198874 0 -0.281250 0.000000 0 0.003750
GW 225 1 -0.281250 0.000000 0 -0.198874 -0.198874 0 0.003750
GW 226 1 -0.198874 -0.198874 0 -0.000000 -0.281250 0 0.003750
GW 227 1 -0.000000 -0.281250 0 0.198874 -0.198874 0 0.003750
GW 228 1 0.198874 -0.198874 0 0.281250 0.000000 0 0.003750
GW 229 1 0.375000 0.000000 0 0.265165 0.265165 0 0.003750
GW 230 1 0.265165 0.265165 0 0.000000 0.375000 0 0.003750
GW 231 1 0.000000 0.375000 0 -0.265165 0.265165 0 0.003750
GW 232 1 -0.265165 0.265165 0 -0.375000 0.000000 0 0.003750
GW 233 1 -0.375000 0.000000 0 -0.265165 -0.265165 0 0.003750
GW 234 1 -0.265165 -0.265165 0 -0.000000 -0.375000 0 0.003750
GW 235 1 -0.000000 -0.375000 0 0.265165 -0.265165 0 0.003750
GW 236 1 0.265165 -0.265165 0 0.375000 0.000000 0 0.003750
GE 0
FR 0 1 0 0 80.000 0
EX 0 100 1 0 1 0
RP 0 37 1 1000 0 0 5 0 0 0
RP 0 37 73 1000 0 0 5 5 0 0
EN
